<?xml version="1.0" encoding="UTF-8"?>

<!-- generated on 2024-03-15 15:17:27 by Eclipse SUMO GUI Version 1.19.0
-->

<configuration xmlns:xsi="http://www.w3.org/2001/XMLSchema-instance" xsi:noNamespaceSchemaLocation="http://sumo.dlr.de/xsd/sumoConfiguration.xsd">

    <input>
        <net-file value="rox_big.net.xml"/>
    </input>

</configuration>
